39

Pd   -0.13692  -2.31388  -0.94241
Br    2.33063  -3.00741  -0.57041
C    -1.38896  -4.05728  -1.06781
C    -2.88135  -4.15406  -0.79080
C    -3.65037  -4.79201  -1.93756
C    -3.02561  -6.10017  -2.39776
C    -1.73438  -6.51751  -1.71076
C    -0.77309  -5.43742  -1.23884
P     0.38747  -1.33788  -3.13883
C    -1.05393  -0.31727  -3.61912
C     0.49250  -2.94721  -4.00424
C     1.95409  -0.41961  -2.90982
P    -0.48216  -1.26905   1.25780
C     0.08713  -2.58333   2.39733
C    -2.25674  -0.93007   0.96471
C     0.49592   0.27767   1.28902
H    -3.35252  -3.97147   0.17348
H    -4.59569  -4.39435  -2.30282
H    -3.51560  -6.72804  -3.13999
H    -1.50449  -7.57257  -1.57227
H     0.25904  -5.63640  -0.95545
H    -0.57844   0.26498  -4.40684
H    -1.73868  -1.11004  -3.91614
H    -1.18810   0.14043  -2.64029
H     0.64448  -2.52695  -4.99716
H     1.34975  -3.35928  -3.47422
H    -0.49557  -3.32098  -3.74038
H     1.85513   0.28465  -3.73433
H     2.65758  -1.24235  -3.02729
H     1.72398  -0.07642  -1.90241
H    -0.86712  -2.82504   2.86271
H     0.46118  -3.23781   1.61162
H     0.80144  -2.00746   2.98364
H    -2.66419  -1.77146   1.52296
H    -2.21249  -0.99289  -0.12143
H    -2.33601   0.05729   1.41686
H     1.48831  -0.15385   1.40968
H     0.20369   0.61959   0.29740
H     0.02116   0.72855   2.15902
