39
 
H -1.3573 -1.2936 1.7186
H -2.5793 0.0348 2.1166
H -0.7603 0.3409 2.0646
H -4.0329 -0.3292 -0.557
H -2.8976 -1.7873 -0.492
H -2.9173 -0.7688 -1.942
H -1.8408 2.5188 0.7423
H -3.3413 2.0866 -0.2018
H -1.7891 2.4872 -1.0555
H -8.9207 0.7792 -5.8403
H -11.3417 1.258 -5.8433
H -12.9441 -0.6429 -5.7805
H -12.1568 -2.9473 -5.7169
H -9.7126 -3.3952 -5.7149
H 3.9399 0.1895 -1.435
H 3.3258 -1.3707 -2.0107
H 2.6042 0.1825 -2.6478
H 1.1588 1.6293 1.0096
H 2.5261 0.7367 1.6977
H 2.7472 1.8879 0.2659
H 0.9489 -2.492 0.2045
H 1.6353 -1.5997 1.613
H 2.7145 -2.4148 0.4188
C -1.64 -0.2124 1.6242
P -1.7738 0.2772 -0.1134
C -3.0731 -0.7428 -0.8651
C -2.2361 2.0266 -0.1673
Pd -0.0891 -0.0421 -1.1196
Br -7.2892 -1.6164 -5.7778
C -9.1767 -1.3325 -5.7775
C -9.65 -0.0379 -5.8131
C -10.9903 0.2508 -5.8155
C -11.8572 -0.8097 -5.7806
C -11.4191 -2.1165 -5.7445
C -10.0745 -2.3619 -5.7434
P 1.8618 -0.2799 -0.3688
C 2.9865 -0.3263 -1.7512
C 2.1003 1.1163 0.7261
C 1.7788 -1.8547 0.5251
